300
Atoms. Timestep: 0
C -36.552 -2.434 -4.45
C -37.782 -1.715 -3.891
C -38.231 -2.401 -2.599
C -39.461 -1.682 -2.041
C -39.91 -2.367 -0.749
C -38.826 -2.204 0.318
C -39.21 -3.007 1.563
C -38.176 -2.766 2.664
C -38.56 -3.569 3.909
C -41.21 -1.728 -0.258
C -40.995 -0.226 -0.056
C -42.296 0.413 0.436
C -43.397 0.19 -0.602
C -43.612 -1.311 -0.804
C -42.312 -1.95 -1.296
C -44.025 -1.95 0.523
C -45.457 -1.525 0.89
C -46.296 -2.817 0.963
C -45.255 -3.93 1.243
C -44.043 -3.487 0.386
C -44.698 0.83 -0.111
C -44.544 2.352 -0.097
C -45.844 2.992 0.394
C -45.691 4.514 0.407
C -46.991 5.153 0.899
C -46.838 6.675 0.912
C -48.138 7.315 1.404
C -47.984 8.837 1.417
C -16.012 1.507 -1.468
C -16.325 0.063 -1.024
C -15.727 -0.194 0.35
C -14.311 -0.742 0.269
C -13.248 0.286 0.058
C -13.517 0.957 -1.317
C -14.617 1.938 -1.191
C -14.325 3.32 -1.76
C -15.323 4.317 -1.156
C -16.754 3.877 -1.465
C -17.019 2.488 -0.87
C -15.126 4.377 0.36
C -16.033 5.459 0.949
C -15.836 5.52 2.465
C -16.743 6.602 3.054
C -12.163 1.56 -1.711
C -11.089 0.738 -0.97
C -11.845 -0.322 -0.135
C -10.166 0.051 -1.978
C -9.034 -0.658 -1.232
C -8.111 -1.345 -2.24
C -6.979 -2.054 -1.494
C -14.008 -1.49 1.569
C -14.923 -2.711 1.679
C -14.62 -3.459 2.979
C -15.535 -4.68 3.09
C 9.406 -2.34 -0.044
C 8.21 -1.73 0.201
C 8.156 -0.366 0.45
C 9.283 0.41 0.377
C 10.498 -0.166 0.026
C 10.583 -1.586 -0.011
C 11.853 -2.2 0.046
C 12.987 -1.48 -0.083
C 12.946 -0.093 -0.343
C 11.693 0.575 -0.386
C 11.659 1.892 -0.84
C 12.818 2.572 -1.087
C 14.049 1.942 -0.919
C 14.116 0.645 -0.574
C 15.477 -0.02 -0.45
C 16.109 -0.156 -1.838
C 16.815 1.116 -2.241
C 15.974 2.352 -2.446
C 15.313 2.758 -1.127
C 17.107 -1.316 -1.831
C 17.648 -1.533 -3.245
C 18.646 -2.693 -3.238
C 19.186 -2.909 -4.653
C 11.964 -3.686 0.272
C 12.721 -4.344 -0.9
C 13.571 -5.451 -0.23
C 14.019 -4.784 1.095
C 12.789 -3.966 1.541
C 14.363 -5.847 2.14
C 15.602 -6.623 1.69
C 15.946 -7.686 2.735
C 17.185 -8.463 2.285
C 9.153 1.86 0.769
C 9.74 2.065 2.167
C 9.546 3.521 2.594
C 10.133 3.726 3.992
C 35.29 0.721 -0.451
C 34.428 -0.288 0.329
C 35.066 -1.675 0.109
C 36.541 -1.363 -0.245
C 36.421 -0.088 -1.117
C 50.095 2.333 0.084
C 49.234 1.324 0.863
C 49.872 -0.063 0.643
C 51.347 0.249 0.289
C 51.227 1.523 -0.583
C 67.109 2.301 0.338
C 66.045 1.229 0.582
C 66.701 -0.01 1.194
C 67.761 -0.553 0.233
C 68.825 0.519 -0.011
C 68.169 1.759 -0.622
C 64.985 1.772 1.542
C 64.329 3.011 0.931
C 65.393 4.084 0.687
C 66.453 3.541 -0.274
H -36.233 -1.946 -5.37
H -35.745 -2.395 -3.718
H -36.804 -3.474 -4.658
H -37.531 -0.675 -3.682
H -38.589 -1.754 -4.623
H -38.482 -3.441 -2.808
H -37.424 -2.362 -1.868
H -39.21 -0.642 -1.832
H -40.268 -1.721 -2.773
H -40.076 -3.428 -0.939
H -37.875 -2.569 -0.07
H -38.73 -1.15 0.581
H -40.193 -2.689 1.911
H -39.238 -4.068 1.316
H -37.193 -3.084 2.316
H -38.148 -1.705 2.911
H -37.824 -3.398 4.693
H -39.543 -3.251 4.257
H -38.588 -4.631 3.662
H -41.504 -2.183 0.688
H -40.21 -0.068 0.684
H -40.701 0.229 -1.001
H -42.59 -0.043 1.381
H -42.143 1.483 0.58
H -43.103 0.646 -1.548
H -44.397 -1.469 -1.544
H -42.018 -1.495 -2.241
H -42.465 -3.02 -1.44
H -43.334 -1.653 1.311
H -45.461 -1.022 1.857
H -45.858 -0.862 0.123
H -47.018 -2.758 1.778
H -46.803 -2.998 0.015
H -44.992 -3.956 2.3
H -45.628 -4.899 0.912
H -44.186 -3.775 -0.655
H -43.121 -3.916 0.779
H -45.514 0.553 -0.778
H -44.917 0.478 0.897
H -43.728 2.629 0.57
H -44.324 2.704 -1.105
H -46.66 2.715 -0.273
H -46.064 2.64 1.402
H -44.875 4.791 1.075
H -45.471 4.866 -0.601
H -47.807 4.876 0.231
H -47.211 4.801 1.907
H -46.022 6.952 1.58
H -46.618 7.027 -0.096
H -48.954 7.038 0.736
H -48.357 6.963 2.412
H -48.911 9.293 1.767
H -47.168 9.114 2.084
H -47.765 9.189 0.409
H -16.149 1.545 -2.549
H -17.405 -0.077 -0.981
H -15.898 -0.638 -1.742
H -15.712 0.742 0.909
H -16.353 -0.91 0.88
H -14.266 -1.456 -0.553
H -13.256 1.023 0.861
H -13.789 0.195 -2.047
H -14.639 2.142 -0.12
H -13.308 3.616 -1.499
H -14.437 3.301 -2.844
H -15.149 5.305 -1.581
H -17.453 4.594 -1.034
H -16.896 3.841 -2.545
H -18.032 2.17 -1.117
H -16.899 2.523 0.212
H -15.38 3.412 0.798
H -14.086 4.614 0.582
H -15.778 6.425 0.511
H -17.073 5.222 0.727
H -16.09 4.555 2.903
H -14.795 5.757 2.687
H -16.602 6.645 4.135
H -16.488 7.567 2.616
H -17.783 6.365 2.832
H -12.017 1.481 -2.788
H -12.114 2.604 -1.402
H -10.509 1.386 -0.313
H -11.356 -0.469 0.828
H -11.908 -1.263 -0.681
H -10.735 -0.679 -2.553
H -9.745 0.797 -2.652
H -8.465 0.072 -0.656
H -9.455 -1.404 -0.557
H -8.68 -2.075 -2.815
H -7.69 -0.599 -2.914
H -6.321 -2.544 -2.212
H -6.409 -1.324 -0.919
H -7.399 -2.8 -0.82
H -12.968 -1.814 1.567
H -14.181 -0.828 2.417
H -15.964 -2.386 1.681
H -14.751 -3.373 0.831
H -13.58 -3.784 2.977
H -14.793 -2.797 3.828
H -15.32 -5.213 4.016
H -16.576 -4.355 3.092
H -15.363 -5.342 2.241
H 9.419 -3.393 -0.277
H 7.302 -2.313 0.203
H 7.215 0.097 0.708
H 13.934 -1.985 0.019
H 10.725 2.381 -1.071
H 12.779 3.597 -1.419
H 16.12 0.598 0.177
H 15.374 -1.002 0.001
H 15.322 -0.373 -2.565
H 17.568 1.341 -1.478
H 17.359 0.921 -3.173
H 16.608 3.171 -2.795
H 15.202 2.153 -3.191
H 15.055 3.816 -1.16
H 16.0 2.576 -0.303
H 17.933 -1.081 -1.158
H 16.608 -2.223 -1.489
H 16.823 -1.768 -3.918
H 18.147 -0.626 -3.586
H 19.471 -2.458 -2.566
H 18.146 -3.599 -2.897
H 19.897 -3.736 -4.648
H 18.361 -3.144 -5.325
H 19.686 -2.003 -4.994
H 10.971 -4.124 0.368
H 12.019 -4.779 -1.611
H 13.365 -3.616 -1.395
H 12.966 -6.336 -0.031
H 14.434 -5.702 -0.846
H 14.872 -4.128 0.922
H 13.109 -3.028 1.993
H 12.197 -4.541 2.252
H 14.564 -5.365 3.096
H 13.523 -6.534 2.249
H 15.401 -7.106 0.734
H 16.441 -5.937 1.581
H 16.147 -7.204 3.692
H 15.106 -8.373 2.845
H 17.43 -9.22 3.03
H 16.983 -8.945 1.329
H 18.024 -7.776 2.176
H 9.694 2.48 0.054
H 8.101 2.143 0.772
H 9.232 1.408 2.874
H 10.804 1.829 2.153
H 10.054 4.178 1.887
H 8.482 3.757 2.608
H 9.994 4.763 4.296
H 9.625 3.069 4.699
H 11.197 3.49 3.977
H 34.687 1.217 -1.211
H 35.711 1.459 0.232
H 34.431 -0.039 1.391
H 33.407 -0.281 -0.053
H 35.01 -2.269 1.021
H 34.577 -2.193 -0.716
H 37.12 -1.161 0.656
H 36.983 -2.18 -0.815
H 36.151 -0.35 -2.14
H 37.354 0.475 -1.101
H 49.493 2.829 -0.677
H 50.517 3.071 0.766
H 49.237 1.572 1.925
H 48.213 1.33 0.481
H 49.816 -0.658 1.555
H 49.383 -0.581 -0.182
H 51.926 0.451 1.19
H 51.789 -0.569 -0.281
H 50.957 1.261 -1.606
H 52.16 2.087 -0.566
H 67.579 2.569 1.285
H 65.575 0.962 -0.365
H 67.171 0.257 2.14
H 65.943 -0.774 1.367
H 68.228 -1.436 0.669
H 67.291 -0.82 -0.713
H 69.295 0.787 0.936
H 69.58 0.133 -0.695
H 67.699 1.491 -1.569
H 68.927 2.523 -0.796
H 64.227 1.008 1.716
H 65.455 2.039 2.489
H 63.859 2.744 -0.016
H 63.573 3.398 1.615
H 64.925 4.967 0.251
H 65.863 4.351 1.633
H 67.211 4.305 -0.447
H 65.983 3.274 -1.22
